blazegraph/test/dss/WSU/PV_Neigh_100.dss
New PVsystem.PV_1 phases=1 Bus1=SX2000402A.1 kV=0.12 kVA=6.5463 pf=1
New PVsystem.PV_2 phases=1 Bus1=SX2000402A.2 kV=0.12 kVA=4.7004 pf=1
New PVsystem.PV_3 phases=1 Bus1=SX2000403A.1 kV=0.12 kVA=5.1387 pf=1
New PVsystem.PV_4 phases=1 Bus1=SX2000403A.2 kV=0.12 kVA=7.4239 pf=1
New PVsystem.PV_5 phases=1 Bus1=SX2000404A.1 kV=0.12 kVA=6.2807 pf=1
New PVsystem.PV_6 phases=1 Bus1=SX2000404A.2 kV=0.12 kVA=3.4288 pf=1
New PVsystem.PV_7 phases=1 Bus1=SX2000405A.1 kV=0.12 kVA=6.5463 pf=1
New PVsystem.PV_8 phases=1 Bus1=SX2000405A.2 kV=0.12 kVA=8.3805 pf=1
New PVsystem.PV_9 phases=1 Bus1=SX2000406A.1 kV=0.12 kVA=9.3478 pf=1
New PVsystem.PV_10 phases=1 Bus1=SX2000406A.2 kV=0.12 kVA=3.2499 pf=1
New PVsystem.PV_11 phases=1 Bus1=SX2000407A.1 kV=0.12 kVA=4.4299 pf=1
New PVsystem.PV_12 phases=1 Bus1=SX2000407A.2 kV=0.12 kVA=7.4879 pf=1
New PVsystem.PV_13 phases=1 Bus1=SX2000408A.1 kV=0.12 kVA=6.5463 pf=1
New PVsystem.PV_14 phases=1 Bus1=SX2000408A.2 kV=0.12 kVA=5.8942 pf=1
New PVsystem.PV_15 phases=1 Bus1=SX2000409A.1 kV=0.12 kVA=4.4938 pf=1
New PVsystem.PV_16 phases=1 Bus1=SX2000409A.2 kV=0.12 kVA=8.4873 pf=1
New PVsystem.PV_17 phases=1 Bus1=SX2000410A.1 kV=0.12 kVA=9.1749 pf=1
New PVsystem.PV_18 phases=1 Bus1=SX2000410A.2 kV=0.12 kVA=5.3169 pf=1
New PVsystem.PV_19 phases=1 Bus1=SX2000411A.1 kV=0.12 kVA=6.4936 pf=1
New PVsystem.PV_20 phases=1 Bus1=SX2000411A.2 kV=0.12 kVA=3.488 pf=1
New PVsystem.PV_21 phases=1 Bus1=SX2000412A.1 kV=0.12 kVA=10.4376 pf=1
New PVsystem.PV_22 phases=1 Bus1=SX2000412A.2 kV=0.12 kVA=9.1796 pf=1
New PVsystem.PV_23 phases=1 Bus1=SX2000413A.1 kV=0.12 kVA=6.3488 pf=1
New PVsystem.PV_24 phases=1 Bus1=SX2000413A.2 kV=0.12 kVA=4.2837 pf=1
New PVsystem.PV_25 phases=1 Bus1=SX2000414A.1 kV=0.12 kVA=3.349 pf=1
New PVsystem.PV_26 phases=1 Bus1=SX2000414A.2 kV=0.12 kVA=7.2389 pf=1
New PVsystem.PV_27 phases=1 Bus1=SX2000415A.1 kV=0.12 kVA=5.8348 pf=1
New PVsystem.PV_28 phases=1 Bus1=SX2000415A.2 kV=0.12 kVA=4.9387 pf=1
New PVsystem.PV_29 phases=1 Bus1=SX2000702B.1 kV=0.12 kVA=5.8234 pf=1
New PVsystem.PV_30 phases=1 Bus1=SX2000702B.2 kV=0.12 kVA=4.7004 pf=1
New PVsystem.PV_31 phases=1 Bus1=SX2000703B.1 kV=0.12 kVA=5.1387 pf=1
New PVsystem.PV_32 phases=1 Bus1=SX2000703B.2 kV=0.12 kVA=4.3988 pf=1
New PVsystem.PV_33 phases=1 Bus1=SX2000704B.1 kV=0.12 kVA=6.8349 pf=1
New PVsystem.PV_34 phases=1 Bus1=SX2000704B.2 kV=0.12 kVA=3.3894 pf=1
New PVsystem.PV_35 phases=1 Bus1=SX2000705B.1 kV=0.12 kVA=5.2938 pf=1
New PVsystem.PV_36 phases=1 Bus1=SX2000705B.2 kV=0.12 kVA=4.3786 pf=1
New PVsystem.PV_37 phases=1 Bus1=SX2000706B.1 kV=0.12 kVA=5.3987 pf=1
New PVsystem.PV_38 phases=1 Bus1=SX2000706B.2 kV=0.12 kVA=6.3875 pf=1
New PVsystem.PV_39 phases=1 Bus1=SX2000707B.1 kV=0.12 kVA=6.5463 pf=1
New PVsystem.PV_40 phases=1 Bus1=SX2000707B.2 kV=0.12 kVA=3.3488 pf=1
New PVsystem.PV_41 phases=1 Bus1=SX2000708B.1 kV=0.12 kVA=7.8347 pf=1
New PVsystem.PV_42 phases=1 Bus1=SX2000708B.2 kV=0.12 kVA=4.386 pf=1
New PVsystem.PV_43 phases=1 Bus1=SX2000709B.1 kV=0.12 kVA=4.014 pf=1
New PVsystem.PV_44 phases=1 Bus1=SX2000709B.2 kV=0.12 kVA=4.7004 pf=1
New PVsystem.PV_45 phases=1 Bus1=SX2000710B.1 kV=0.12 kVA=5.8789 pf=1
New PVsystem.PV_46 phases=1 Bus1=SX2000710B.2 kV=0.12 kVA=4.5731 pf=1
New PVsystem.PV_47 phases=1 Bus1=SX2000711B.1 kV=0.12 kVA=2.9426 pf=1
New PVsystem.PV_48 phases=1 Bus1=SX2000711B.2 kV=0.12 kVA=4.0985 pf=1
New PVsystem.PV_49 phases=1 Bus1=SX2000712B.1 kV=0.12 kVA=6.8095 pf=1
New PVsystem.PV_50 phases=1 Bus1=SX2000712B.2 kV=0.12 kVA=4.3898 pf=1
New PVsystem.PV_51 phases=1 Bus1=SX2000713B.1 kV=0.12 kVA=5.9315 pf=1
New PVsystem.PV_52 phases=1 Bus1=SX2000713B.2 kV=0.12 kVA=6.8476 pf=1
New PVsystem.PV_53 phases=1 Bus1=SX2000714B.1 kV=0.12 kVA=4.348 pf=1
New PVsystem.PV_54 phases=1 Bus1=SX2000714B.2 kV=0.12 kVA=4.7004 pf=1
New PVsystem.PV_55 phases=1 Bus1=SX2000715B.1 kV=0.12 kVA=6.5463 pf=1
New PVsystem.PV_56 phases=1 Bus1=SX2000715B.2 kV=0.12 kVA=4.7004 pf=1
New PVsystem.PV_57 phases=1 Bus1=SX2000902C.1 kV=0.12 kVA=6.5463 pf=1
New PVsystem.PV_58 phases=1 Bus1=SX2000902C.2 kV=0.12 kVA=4.7004 pf=1
New PVsystem.PV_59 phases=1 Bus1=SX2000903C.1 kV=0.12 kVA=5.1387 pf=1
New PVsystem.PV_60 phases=1 Bus1=SX2000903C.2 kV=0.12 kVA=7.4239 pf=1
New PVsystem.PV_61 phases=1 Bus1=SX2000904C.1 kV=0.12 kVA=6.2807 pf=1
New PVsystem.PV_62 phases=1 Bus1=SX2000904C.2 kV=0.12 kVA=3.4288 pf=1
New PVsystem.PV_63 phases=1 Bus1=SX2000905C.1 kV=0.12 kVA=6.5463 pf=1
New PVsystem.PV_64 phases=1 Bus1=SX2000905C.2 kV=0.12 kVA=4.7004 pf=1
New PVsystem.PV_65 phases=1 Bus1=SX2000906C.1 kV=0.12 kVA=6.5463 pf=1
New PVsystem.PV_66 phases=1 Bus1=SX2000906C.2 kV=0.12 kVA=4.7004 pf=1
New PVsystem.PV_67 phases=1 Bus1=SX2000907C.1 kV=0.12 kVA=6.5463 pf=1
New PVsystem.PV_68 phases=1 Bus1=SX2000907C.2 kV=0.12 kVA=4.7004 pf=1
New PVsystem.PV_69 phases=1 Bus1=SX2000908C.1 kV=0.12 kVA=6.5463 pf=1
New PVsystem.PV_70 phases=1 Bus1=SX2000908C.2 kV=0.12 kVA=4.7004 pf=1
New PVsystem.PV_71 phases=1 Bus1=SX2000909C.1 kV=0.12 kVA=6.5463 pf=1
New PVsystem.PV_72 phases=1 Bus1=SX2000909C.2 kV=0.12 kVA=4.7004 pf=1
New PVsystem.PV_73 phases=1 Bus1=SX2000910C.1 kV=0.12 kVA=6.5463 pf=1
New PVsystem.PV_74 phases=1 Bus1=SX2000910C.2 kV=0.12 kVA=4.7004 pf=1
New PVsystem.PV_75 phases=1 Bus1=SX2000911C.1 kV=0.12 kVA=6.5463 pf=1
New PVsystem.PV_76 phases=1 Bus1=SX2000911C.2 kV=0.12 kVA=4.7004 pf=1
New PVsystem.PV_77 phases=1 Bus1=SX2000912C.1 kV=0.12 kVA=6.5463 pf=1
New PVsystem.PV_78 phases=1 Bus1=SX2000912C.2 kV=0.12 kVA=4.7004 pf=1
New PVsystem.PV_79 phases=1 Bus1=SX2000913C.1 kV=0.12 kVA=6.5463 pf=1
New PVsystem.PV_80 phases=1 Bus1=SX2000913C.2 kV=0.12 kVA=4.7004 pf=1
New PVsystem.PV_81 phases=1 Bus1=SX2000914C.1 kV=0.12 kVA=6.5463 pf=1
New PVsystem.PV_82 phases=1 Bus1=SX2000914C.2 kV=0.12 kVA=4.7004 pf=1
New PVsystem.PV_83 phases=1 Bus1=SX2000915C.1 kV=0.12 kVA=6.5463 pf=1
New PVsystem.PV_84 phases=1 Bus1=SX2000915C.2 kV=0.12 kVA=4.7004 pf=1
New PVsystem.PV_85 phases=1 Bus1=SX2001002B.1 kV=0.12 kVA=6.5463 pf=1
New PVsystem.PV_86 phases=1 Bus1=SX2001002B.2 kV=0.12 kVA=4.7004 pf=1
New PVsystem.PV_87 phases=1 Bus1=SX2001003B.1 kV=0.12 kVA=5.1387 pf=1
New PVsystem.PV_88 phases=1 Bus1=SX2001003B.2 kV=0.12 kVA=7.4239 pf=1
New PVsystem.PV_89 phases=1 Bus1=SX2001004B.1 kV=0.12 kVA=6.2807 pf=1
New PVsystem.PV_90 phases=1 Bus1=SX2001004B.2 kV=0.12 kVA=3.4288 pf=1
New PVsystem.PV_91 phases=1 Bus1=SX2001005B.1 kV=0.12 kVA=6.8895 pf=1
New PVsystem.PV_92 phases=1 Bus1=SX2001005B.2 kV=0.12 kVA=4.1909 pf=1
New PVsystem.PV_93 phases=1 Bus1=SX2001006B.1 kV=0.12 kVA=5.3705 pf=1
New PVsystem.PV_94 phases=1 Bus1=SX2001006B.2 kV=0.12 kVA=4.3875 pf=1
New PVsystem.PV_95 phases=1 Bus1=SX2001007B.1 kV=0.12 kVA=6.1348 pf=1
New PVsystem.PV_96 phases=1 Bus1=SX2001007B.2 kV=0.12 kVA=3.2341 pf=1
New PVsystem.PV_97 phases=1 Bus1=SX2001008B.1 kV=0.12 kVA=5.4099 pf=1
New PVsystem.PV_98 phases=1 Bus1=SX2001008B.2 kV=0.12 kVA=7.3085 pf=1
New PVsystem.PV_99 phases=1 Bus1=SX2001009B.1 kV=0.12 kVA=8.4897 pf=1
New PVsystem.PV_100 phases=1 Bus1=SX2001009B.2 kV=0.12 kVA=5.4809 pf=1
New PVsystem.PV_101 phases=1 Bus1=SX2001010B.1 kV=0.12 kVA=9.4098 pf=1
New PVsystem.PV_102 phases=1 Bus1=SX2001010B.2 kV=0.12 kVA=7.4894 pf=1
New PVsystem.PV_103 phases=1 Bus1=SX2001011B.1 kV=0.12 kVA=4.3897 pf=1
New PVsystem.PV_104 phases=1 Bus1=SX2001011B.2 kV=0.12 kVA=3.085 pf=1
New PVsystem.PV_105 phases=1 Bus1=SX2001012B.1 kV=0.12 kVA=6.3848 pf=1
New PVsystem.PV_106 phases=1 Bus1=SX2001012B.2 kV=0.12 kVA=7.3746 pf=1
New PVsystem.PV_107 phases=1 Bus1=SX2001013B.1 kV=0.12 kVA=8.3273 pf=1
New PVsystem.PV_108 phases=1 Bus1=SX2001013B.2 kV=0.12 kVA=9.2378 pf=1
New PVsystem.PV_109 phases=1 Bus1=SX2001014B.1 kV=0.12 kVA=14.4796 pf=1
New PVsystem.PV_110 phases=1 Bus1=SX2001014B.2 kV=0.12 kVA=13.8472 pf=1
New PVsystem.PV_111 phases=1 Bus1=SX2001015B.1 kV=0.12 kVA=12.8674 pf=1
New PVsystem.PV_112 phases=1 Bus1=SX2001015B.2 kV=0.12 kVA=11.3479 pf=1
New PVsystem.PV_113 phases=1 Bus1=SX2001202C.1 kV=0.12 kVA=6.4857 pf=1
New PVsystem.PV_114 phases=1 Bus1=SX2001202C.2 kV=0.12 kVA=5.9385 pf=1
New PVsystem.PV_115 phases=1 Bus1=SX2001203C.1 kV=0.12 kVA=7.9847 pf=1
New PVsystem.PV_116 phases=1 Bus1=SX2001203C.2 kV=0.12 kVA=8.0395 pf=1
New PVsystem.PV_117 phases=1 Bus1=SX2001204C.1 kV=0.12 kVA=5.0959 pf=1
New PVsystem.PV_118 phases=1 Bus1=SX2001204C.2 kV=0.12 kVA=7.8496 pf=1
New PVsystem.PV_119 phases=1 Bus1=SX2001205C.1 kV=0.12 kVA=3.8093 pf=1
New PVsystem.PV_120 phases=1 Bus1=SX2001205C.2 kV=0.12 kVA=4.7539 pf=1
New PVsystem.PV_121 phases=1 Bus1=SX2001206C.1 kV=0.12 kVA=6.0939 pf=1
New PVsystem.PV_122 phases=1 Bus1=SX2001206C.2 kV=0.12 kVA=4.4375 pf=1
New PVsystem.PV_123 phases=1 Bus1=SX2001207C.1 kV=0.12 kVA=5.4089 pf=1
New PVsystem.PV_124 phases=1 Bus1=SX2001207C.2 kV=0.12 kVA=3.4375 pf=1
New PVsystem.PV_125 phases=1 Bus1=SX2001208C.1 kV=0.12 kVA=6.3875 pf=1
New PVsystem.PV_126 phases=1 Bus1=SX2001208C.2 kV=0.12 kVA=5.4959 pf=1
New PVsystem.PV_127 phases=1 Bus1=SX2001209C.1 kV=0.12 kVA=7.9458 pf=1
New PVsystem.PV_128 phases=1 Bus1=SX2001209C.2 kV=0.12 kVA=5.9846 pf=1
New PVsystem.PV_129 phases=1 Bus1=SX2001210C.1 kV=0.12 kVA=3.4896 pf=1
New PVsystem.PV_130 phases=1 Bus1=SX2001210C.2 kV=0.12 kVA=9.9486 pf=1
New PVsystem.PV_131 phases=1 Bus1=SX2001211C.1 kV=0.12 kVA=10.9857 pf=1
New PVsystem.PV_132 phases=1 Bus1=SX2001211C.2 kV=0.12 kVA=12.4306 pf=1
New PVsystem.PV_133 phases=1 Bus1=SX2001212C.1 kV=0.12 kVA=9.4853 pf=1
New PVsystem.PV_134 phases=1 Bus1=SX2001212C.2 kV=0.12 kVA=8.3948 pf=1
New PVsystem.PV_135 phases=1 Bus1=SX2001213C.1 kV=0.12 kVA=9.4985 pf=1
New PVsystem.PV_136 phases=1 Bus1=SX2001213C.2 kV=0.12 kVA=8.5809 pf=1
New PVsystem.PV_137 phases=1 Bus1=SX2001214C.1 kV=0.12 kVA=7.3848 pf=1
New PVsystem.PV_138 phases=1 Bus1=SX2001214C.2 kV=0.12 kVA=9.4949 pf=1
New PVsystem.PV_139 phases=1 Bus1=SX2001215C.1 kV=0.12 kVA=10.3499 pf=1
New PVsystem.PV_140 phases=1 Bus1=SX2001215C.2 kV=0.12 kVA=11.035 pf=1
New PVsystem.PV_141 phases=1 Bus1=SX2001302A.1 kV=0.12 kVA=4.3299 pf=1
New PVsystem.PV_142 phases=1 Bus1=SX2001302A.2 kV=0.12 kVA=4.4896 pf=1
New PVsystem.PV_143 phases=1 Bus1=SX2001303A.1 kV=0.12 kVA=5.4939 pf=1
New PVsystem.PV_144 phases=1 Bus1=SX2001303A.2 kV=0.12 kVA=7.4239 pf=1
New PVsystem.PV_145 phases=1 Bus1=SX2001304A.1 kV=0.12 kVA=6.2807 pf=1
New PVsystem.PV_146 phases=1 Bus1=SX2001304A.2 kV=0.12 kVA=3.3449 pf=1
New PVsystem.PV_147 phases=1 Bus1=SX2001305A.1 kV=0.12 kVA=6.5463 pf=1
New PVsystem.PV_148 phases=1 Bus1=SX2001305A.2 kV=0.12 kVA=4.3095 pf=1
New PVsystem.PV_149 phases=1 Bus1=SX2001306A.1 kV=0.12 kVA=5.9835 pf=1
New PVsystem.PV_150 phases=1 Bus1=SX2001306A.2 kV=0.12 kVA=3.4893 pf=1
New PVsystem.PV_151 phases=1 Bus1=SX2001307A.1 kV=0.12 kVA=6.4959 pf=1
New PVsystem.PV_152 phases=1 Bus1=SX2001307A.2 kV=0.12 kVA=7.4854 pf=1
New PVsystem.PV_153 phases=1 Bus1=SX2001308A.1 kV=0.12 kVA=6.5463 pf=1
New PVsystem.PV_154 phases=1 Bus1=SX2001308A.2 kV=0.12 kVA=8.095 pf=1
New PVsystem.PV_155 phases=1 Bus1=SX2001309A.1 kV=0.12 kVA=3.5463 pf=1
New PVsystem.PV_156 phases=1 Bus1=SX2001309A.2 kV=0.12 kVA=4.7004 pf=1
New PVsystem.PV_157 phases=1 Bus1=SX2001310A.1 kV=0.12 kVA=8.8499 pf=1
New PVsystem.PV_158 phases=1 Bus1=SX2001310A.2 kV=0.12 kVA=9.2983 pf=1
New PVsystem.PV_159 phases=1 Bus1=SX2001311A.1 kV=0.12 kVA=8.0948 pf=1
New PVsystem.PV_160 phases=1 Bus1=SX2001311A.2 kV=0.12 kVA=7.9486 pf=1
New PVsystem.PV_161 phases=1 Bus1=SX2001312A.1 kV=0.12 kVA=6.4982 pf=1
New PVsystem.PV_162 phases=1 Bus1=SX2001312A.2 kV=0.12 kVA=8.0395 pf=1
New PVsystem.PV_163 phases=1 Bus1=SX2001313A.1 kV=0.12 kVA=9.9848 pf=1
New PVsystem.PV_164 phases=1 Bus1=SX2001313A.2 kV=0.12 kVA=12.387 pf=1
New PVsystem.PV_165 phases=1 Bus1=SX2001314A.1 kV=0.12 kVA=11.4951 pf=1
New PVsystem.PV_166 phases=1 Bus1=SX2001314A.2 kV=0.12 kVA=9.9486 pf=1
New PVsystem.PV_167 phases=1 Bus1=SX2001315A.1 kV=0.12 kVA=10.0359 pf=1
New PVsystem.PV_168 phases=1 Bus1=SX2001315A.2 kV=0.12 kVA=9.8945 pf=1
New PVsystem.PV_169 phases=1 Bus1=SX2001400C.1 kV=0.12 kVA=18.8111 pf=1
New PVsystem.PV_170 phases=1 Bus1=SX2001400C.2 kV=0.12 kVA=21.7089 pf=1
